# $FreeBSD$

SHLIB_MAJOR=	6
WARNS?=		5

MANFILTER=	sed -e 's%@MODPATH@%${LIBDIR}/%g'		\
		    -e 's%@DEFPATH@%${DEFSDIR}/%g'		\
		    -e 's%@MIBSPATH@%${BMIBSDIR}/%g'
